2H42.C
  MOE2024           3D
HYDROLASE
 33 36  0  0  0  0  0  0  0  0999 V2000
   11.8390  142.5670   56.2490 C   0  0  0  0  0  0  0  0  0  0  0  0
   13.1440  142.1830   55.5480 C   0  0  0  0  0  0  0  0  0  0  0  0
   14.1450  143.3390   55.5680 C   0  0  0  0  0  0  0  0  0  0  0  0
   15.4490  142.9160   54.8900 C   0  0  0  0  0  0  0  0  0  0  0  0
   16.6350  142.7430   55.4690 N   0  0  0  0  0  0  0  0  0  0  0  0
   17.4630  142.3740   54.6340 N   0  0  0  0  0  0  0  0  0  0  0  0
   18.8850  142.1140   54.9530 C   0  0  0  0  0  0  0  0  0  0  0  0
   16.9400  142.2560   53.4170 C   0  0  0  0  0  0  0  0  0  0  0  0
   17.4280  141.8870   52.1690 C   0  0  0  0  0  0  0  0  0  0  0  0
   18.6110  141.5860   52.0100 O   0  0  0  0  0  0  0  0  0  0  0  0
   16.5450  141.8830   51.0830 N   0  0  0  0  0  0  0  0  0  0  0  0
   15.2100  142.2550   51.2750 C   0  0  0  0  0  0  0  0  0  0  0  0
   14.7720  142.6050   52.4940 N   0  0  0  0  0  0  0  0  0  0  0  0
   15.6030  142.6090   53.5440 C   0  0  0  0  0  0  0  0  0  0  0  0
   14.3500  142.3390   50.1870 C   0  0  0  0  0  0  0  0  0  0  0  0
   13.5270  143.4490   50.0410 C   0  0  0  0  0  0  0  0  0  0  0  0
   12.6750  143.5430   48.9470 C   0  0  0  0  0  0  0  0  0  0  0  0
   12.6460  142.5260   47.9990 C   0  0  0  0  0  0  0  0  0  0  0  0
   13.4680  141.4140   48.1470 C   0  0  0  0  0  0  0  0  0  0  0  0
   14.3180  141.3190   49.2440 C   0  0  0  0  0  0  0  0  0  0  0  0
   15.0930  140.2190   49.4510 O   0  0  0  0  0  0  0  0  0  0  0  0
   15.3540  139.5100   48.2310 C   0  0  0  0  0  0  0  0  0  0  0  0
   16.2900  138.3440   48.5560 C   0  0  0  0  0  0  0  0  0  0  0  0
   11.6510  144.9520   48.7870 S   0  0  0  0  0  0  0  0  0  0  0  0
   11.4190  145.2450   47.3350 O   0  0  0  0  0  0  0  0  0  0  0  0
   12.3430  146.1220   49.4200 O   0  0  0  0  0  0  0  0  0  0  0  0
   10.2080  144.7280   49.5120 N   0  0  0  0  0  0  0  0  0  0  0  0
   10.0780  143.4520   50.2340 C   0  0  0  0  0  0  0  0  0  0  0  0
   10.6000  143.5280   51.6700 C   0  0  0  0  0  0  0  0  0  0  0  0
    9.9760  144.6560   52.3750 N   0  3  0  0  0  0  0  0  0  0  0  0
   10.4470  144.6850   53.7670 C   0  0  0  0  0  0  0  0  0  0  0  0
   10.3950  145.8900   51.6960 C   0  0  0  0  0  0  0  0  0  0  0  0
    9.7910  145.9030   50.2920 C   0  0  0  0  0  0  0  0  0  0  0  0
  1  2  1  0  0  0  0
  2  3  1  0  0  0  0
  3  4  1  0  0  0  0
  4  5  2  0  0  0  0
  4 14  1  0  0  0  0
  5  6  1  0  0  0  0
  6  7  1  0  0  0  0
  6  8  1  0  0  0  0
  8  9  1  0  0  0  0
  8 14  2  0  0  0  0
  9 10  2  0  0  0  0
  9 11  1  0  0  0  0
 11 12  1  0  0  0  0
 12 13  2  0  0  0  0
 12 15  1  0  0  0  0
 13 14  1  0  0  0  0
 15 16  1  0  0  0  0
 15 20  2  0  0  0  0
 16 17  2  0  0  0  0
 17 18  1  0  0  0  0
 17 24  1  0  0  0  0
 18 19  2  0  0  0  0
 19 20  1  0  0  0  0
 20 21  1  0  0  0  0
 21 22  1  0  0  0  0
 22 23  1  0  0  0  0
 24 25  2  0  0  0  0
 24 26  2  0  0  0  0
 24 27  1  0  0  0  0
 27 28  1  0  0  0  0
 27 33  1  0  0  0  0
 28 29  1  0  0  0  0
 29 30  1  0  0  0  0
 30 31  1  0  0  0  0
 30 32  1  0  0  0  0
 32 33  1  0  0  0  0
M  CHG  1  30   1
M  END
$$$$
