
     RDKit          3D

 55 58  0  0  0  0  0  0  0  0999 V2000
   15.5310  139.1628   48.4440 C   0  0  0  0  0  0  0  0  0  0  0  0
   15.4702  140.2148   49.3942 O   0  0  0  0  0  0  0  0  0  0  0  0
   14.5438  141.2246   49.1853 C   0  0  0  0  0  0  0  0  0  0  0  0
   13.6859  141.2382   48.0907 C   0  0  0  0  0  0  0  0  0  0  0  0
   12.8242  142.2693   47.9869 N   0  0  0  0  0  0  0  0  0  0  0  0
   12.7521  143.2798   48.8823 C   0  0  0  0  0  0  0  0  0  0  0  0
   11.7310  144.3385   48.6355 C   0  0  0  0  0  0  0  0  0  0  0  0
   11.6371  144.9326   47.4689 N   0  0  0  0  0  0  0  0  0  0  0  0
   10.8150  145.8109   47.1649 C   0  0  0  0  0  0  0  0  0  0  0  0
    9.8338  145.9964   48.7793 S   0  0  0  0  0  0  0  0  0  0  0  0
   10.8484  144.7204   49.5924 C   0  0  0  0  0  0  0  0  0  0  0  0
   10.5672  144.3424   50.9667 C   0  0  0  0  0  0  0  0  0  0  0  0
    9.4845  143.2738   50.9677 C   0  0  0  0  0  0  0  0  0  0  0  0
    9.9939  145.5551   51.6904 C   0  0  0  0  0  0  0  0  0  0  0  0
    9.6768  145.2281   53.1360 C   0  0  0  0  0  0  0  0  0  0  0  0
    8.7496  144.2072   53.1841 F   0  0  0  0  0  0  0  0  0  0  0  0
   13.5799  143.3080   49.9778 C   0  0  0  0  0  0  0  0  0  0  0  0
   14.4837  142.2530   50.1133 C   0  0  0  0  0  0  0  0  0  0  0  0
   15.4033  142.2210   51.2694 C   0  0  0  0  0  0  0  0  0  0  0  0
   14.9708  142.4907   52.5529 C   0  0  0  0  0  0  0  0  0  0  0  0
   15.8510  142.4559   53.6295 C   0  0  0  0  0  0  0  0  0  0  0  0
   17.1835  142.1466   53.4183 C   0  0  0  0  0  0  0  0  0  0  0  0
   17.6126  141.8770   52.1301 C   0  0  0  0  0  0  0  0  0  0  0  0
   18.9533  141.5726   51.9660 O   0  0  0  0  0  0  0  0  0  0  0  0
   19.5112  141.2776   50.6901 C   0  0  0  0  0  0  0  0  0  0  0  0
   16.7374  141.9117   51.0601 C   0  0  0  0  0  0  0  0  0  0  0  0
   18.0537  142.1160   54.5094 O   0  0  0  0  0  0  0  0  0  0  0  0
   17.6304  142.3051   55.8269 C   0  0  0  0  0  0  0  0  0  0  0  0
   16.3641  143.0772   55.9892 C   0  0  0  0  0  0  0  0  0  0  0  0
   15.3147  142.7547   54.9652 C   0  0  0  0  0  0  0  0  0  0  0  0
   16.3434  138.4449   48.6697 H   0  0  0  0  0  0  0  0  0  0  0  0
   15.7313  139.6324   47.4450 H   0  0  0  0  0  0  0  0  0  0  0  0
   14.5586  138.6477   48.3291 H   0  0  0  0  0  0  0  0  0  0  0  0
   13.7317  140.4349   47.3639 H   0  0  0  0  0  0  0  0  0  0  0  0
   10.5353  146.4284   46.3311 H   0  0  0  0  0  0  0  0  0  0  0  0
   11.4045  143.9073   51.5437 H   0  0  0  0  0  0  0  0  0  0  0  0
    8.5083  143.7558   50.9029 H   0  0  0  0  0  0  0  0  0  0  0  0
    9.5879  142.6194   50.0536 H   0  0  0  0  0  0  0  0  0  0  0  0
    9.6191  142.5793   51.8201 H   0  0  0  0  0  0  0  0  0  0  0  0
   10.6887  146.3971   51.5883 H   0  0  0  0  0  0  0  0  0  0  0  0
    9.0747  145.8213   51.1237 H   0  0  0  0  0  0  0  0  0  0  0  0
    9.1864  146.1056   53.6026 H   0  0  0  0  0  0  0  0  0  0  0  0
   10.6266  144.9566   53.6291 H   0  0  0  0  0  0  0  0  0  0  0  0
   13.5626  144.0970   50.7028 H   0  0  0  0  0  0  0  0  0  0  0  0
   13.9122  142.7370   52.7255 H   0  0  0  0  0  0  0  0  0  0  0  0
   18.9394  140.4102   50.2484 H   0  0  0  0  0  0  0  0  0  0  0  0
   19.4205  142.1498   49.9947 H   0  0  0  0  0  0  0  0  0  0  0  0
   20.5716  141.0029   50.8223 H   0  0  0  0  0  0  0  0  0  0  0  0
   17.1537  141.6886   50.0868 H   0  0  0  0  0  0  0  0  0  0  0  0
   18.4470  142.8764   56.3592 H   0  0  0  0  0  0  0  0  0  0  0  0
   17.5949  141.3235   56.3775 H   0  0  0  0  0  0  0  0  0  0  0  0
   16.5051  144.1778   56.0097 H   0  0  0  0  0  0  0  0  0  0  0  0
   15.9373  142.8277   57.0050 H   0  0  0  0  0  0  0  0  0  0  0  0
   14.5354  143.5432   54.9666 H   0  0  0  0  0  0  0  0  0  0  0  0
   14.7843  141.8215   55.3052 H   0  0  0  0  0  0  0  0  0  0  0  0
  1  2  1  0
  2  3  1  0
  3  4  2  0
  4  5  1  0
  5  6  2  0
  6  7  1  0
  7  8  1  0
  8  9  2  0
  9 10  1  0
 10 11  1  0
 11 12  1  0
 12 13  1  0
 12 14  1  0
 14 15  1  0
 15 16  1  0
  6 17  1  0
 17 18  2  0
 18 19  1  0
 19 20  2  0
 20 21  1  0
 21 22  2  0
 22 23  1  0
 23 24  1  0
 24 25  1  0
 23 26  2  0
 22 27  1  0
 27 28  1  0
 28 29  1  0
 29 30  1  0
 18  3  1  0
 26 19  1  0
 11  7  2  0
 30 21  1  0
  1 31  1  0
  1 32  1  0
  1 33  1  0
  4 34  1  0
  9 35  1  0
 12 36  1  0
 13 37  1  0
 13 38  1  0
 13 39  1  0
 14 40  1  0
 14 41  1  0
 15 42  1  0
 15 43  1  0
 17 44  1  0
 20 45  1  0
 25 46  1  0
 25 47  1  0
 25 48  1  0
 26 49  1  0
 28 50  1  0
 28 51  1  0
 29 52  1  0
 29 53  1  0
 30 54  1  0
 30 55  1  0
M  END
>  <shape_align_shape_tanimoto>  (1) 
0.70276375529791657

>  <shape_align_color_tanimoto>  (1) 
0.18520761035461025

$$$$

     RDKit          3D

 52 55  0  0  0  0  0  0  0  0999 V2000
   16.6885  138.5641   48.6218 C   0  0  0  0  0  0  0  0  0  0  0  0
   15.5028  139.4331   48.3800 C   0  0  0  0  0  0  0  0  0  0  0  0
   15.4072  140.4167   49.3411 O   0  0  0  0  0  0  0  0  0  0  0  0
   14.4082  141.3382   49.3391 C   0  0  0  0  0  0  0  0  0  0  0  0
   13.4284  141.3405   48.3704 C   0  0  0  0  0  0  0  0  0  0  0  0
   12.4546  142.3093   48.4433 C   0  0  0  0  0  0  0  0  0  0  0  0
   11.4157  142.2976   47.4015 C   0  0  0  0  0  0  0  0  0  0  0  0
   12.4451  143.2415   49.4326 C   0  0  0  0  0  0  0  0  0  0  0  0
   11.3947  144.2587   49.5030 C   0  0  0  0  0  0  0  0  0  0  0  0
   10.1340  143.9347   49.5752 N   0  0  0  0  0  0  0  0  0  0  0  0
    9.2390  144.5974   49.6294 C   0  0  0  0  0  0  0  0  0  0  0  0
   10.0636  146.2876   49.5864 S   0  0  0  0  0  0  0  0  0  0  0  0
   11.6470  145.5584   49.4916 C   0  0  0  0  0  0  0  0  0  0  0  0
   12.8741  146.3456   49.4045 C   0  0  0  0  0  0  0  0  0  0  0  0
   12.7499  147.5524   50.0418 O   0  0  0  0  0  0  0  0  0  0  0  0
   13.0507  146.6343   47.9309 C   0  0  0  0  0  0  0  0  0  0  0  0
   11.9433  147.3381   47.5067 F   0  0  0  0  0  0  0  0  0  0  0  0
   13.4338  143.2039   50.3729 C   0  0  0  0  0  0  0  0  0  0  0  0
   14.4085  142.2660   50.3341 C   0  0  0  0  0  0  0  0  0  0  0  0
   15.4386  142.2454   51.3377 C   0  0  0  0  0  0  0  0  0  0  0  0
   16.7306  142.0669   50.9921 C   0  0  0  0  0  0  0  0  0  0  0  0
   17.6479  142.0582   52.0016 C   0  0  0  0  0  0  0  0  0  0  0  0
   18.9859  141.8815   51.7334 O   0  0  0  0  0  0  0  0  0  0  0  0
   17.2511  142.2247   53.2933 C   0  0  0  0  0  0  0  0  0  0  0  0
   15.9555  142.4043   53.6443 C   0  0  0  0  0  0  0  0  0  0  0  0
   15.0422  142.4118   52.6278 C   0  0  0  0  0  0  0  0  0  0  0  0
   15.4981  142.5856   55.0199 C   0  0  0  0  0  0  0  0  0  0  0  0
   16.5513  142.9183   55.8017 O   0  0  0  0  0  0  0  0  0  0  0  0
   17.6588  142.1269   55.6334 C   0  0  0  0  0  0  0  0  0  0  0  0
   18.1648  142.2193   54.3362 O   0  0  0  0  0  0  0  0  0  0  0  0
   17.5896  139.1246   48.8148 H   0  0  0  0  0  0  0  0  0  0  0  0
   16.5258  137.8336   49.3931 H   0  0  0  0  0  0  0  0  0  0  0  0
   16.8558  138.0109   47.6724 H   0  0  0  0  0  0  0  0  0  0  0  0
   15.5714  139.8190   47.3707 H   0  0  0  0  0  0  0  0  0  0  0  0
   14.6194  138.7689   48.4303 H   0  0  0  0  0  0  0  0  0  0  0  0
   13.4230  140.6215   47.5951 H   0  0  0  0  0  0  0  0  0  0  0  0
   11.5244  143.1018   46.6799 H   0  0  0  0  0  0  0  0  0  0  0  0
   11.4163  141.3287   46.8745 H   0  0  0  0  0  0  0  0  0  0  0  0
   10.4132  142.3860   47.8436 H   0  0  0  0  0  0  0  0  0  0  0  0
    8.0934  144.6854   49.6960 H   0  0  0  0  0  0  0  0  0  0  0  0
   13.6797  145.7439   49.7772 H   0  0  0  0  0  0  0  0  0  0  0  0
   13.1100  148.2966   49.5559 H   0  0  0  0  0  0  0  0  0  0  0  0
   13.9236  147.2343   47.7644 H   0  0  0  0  0  0  0  0  0  0  0  0
   13.0950  145.6662   47.4180 H   0  0  0  0  0  0  0  0  0  0  0  0
   13.4835  143.9045   51.1857 H   0  0  0  0  0  0  0  0  0  0  0  0
   17.0457  141.9355   49.9746 H   0  0  0  0  0  0  0  0  0  0  0  0
   19.6042  141.5407   52.4456 H   0  0  0  0  0  0  0  0  0  0  0  0
   14.0103  142.5545   52.9043 H   0  0  0  0  0  0  0  0  0  0  0  0
   14.9710  141.6742   55.3562 H   0  0  0  0  0  0  0  0  0  0  0  0
   14.8137  143.4478   55.0375 H   0  0  0  0  0  0  0  0  0  0  0  0
   17.4277  141.1093   55.9098 H   0  0  0  0  0  0  0  0  0  0  0  0
   18.4225  142.4978   56.3207 H   0  0  0  0  0  0  0  0  0  0  0  0
  1  2  1  0
  2  3  1  0
  3  4  1  0
  4  5  2  0
  5  6  1  0
  6  7  1  0
  6  8  2  0
  8  9  1  0
  9 10  1  0
 10 11  2  0
 11 12  1  0
 12 13  1  0
 13 14  1  0
 14 15  1  0
 14 16  1  0
 16 17  1  0
  8 18  1  0
 18 19  2  0
 19 20  1  0
 20 21  2  0
 21 22  1  0
 22 23  1  0
 22 24  2  0
 24 25  1  0
 25 26  2  0
 25 27  1  0
 27 28  1  0
 28 29  1  0
 29 30  1  0
 19  4  1  0
 26 20  1  0
 13  9  2  0
 30 24  1  0
  1 31  1  0
  1 32  1  0
  1 33  1  0
  2 34  1  0
  2 35  1  0
  5 36  1  0
  7 37  1  0
  7 38  1  0
  7 39  1  0
 11 40  1  0
 14 41  1  0
 15 42  1  0
 16 43  1  0
 16 44  1  0
 18 45  1  0
 21 46  1  0
 23 47  1  0
 26 48  1  0
 27 49  1  0
 27 50  1  0
 29 51  1  0
 29 52  1  0
M  END
>  <shape_align_shape_tanimoto>  (2) 
0.64492845719145442

>  <shape_align_color_tanimoto>  (2) 
0.20529132533629996

$$$$

     RDKit          3D

 52 56  0  0  0  0  0  0  0  0999 V2000
   15.2213  139.2159   48.6549 C   0  0  0  0  0  0  0  0  0  0  0  0
   15.2248  140.2908   49.5446 O   0  0  0  0  0  0  0  0  0  0  0  0
   14.3792  141.3561   49.3855 C   0  0  0  0  0  0  0  0  0  0  0  0
   13.5046  141.3839   48.3361 C   0  0  0  0  0  0  0  0  0  0  0  0
   12.6675  142.4493   48.1879 C   0  0  0  0  0  0  0  0  0  0  0  0
   12.6435  143.5383   49.0562 C   0  0  0  0  0  0  0  0  0  0  0  0
   11.7603  144.6588   48.7822 C   0  0  0  0  0  0  0  0  0  0  0  0
   11.9262  145.2130   47.5360 N   0  0  0  0  0  0  0  0  0  0  0  0
   11.2170  146.2522   47.0882 C   0  0  0  0  0  0  0  0  0  0  0  0
   10.2720  146.7856   47.9340 C   0  0  0  0  0  0  0  0  0  0  0  0
   10.0892  146.2595   49.1606 C   0  0  0  0  0  0  0  0  0  0  0  0
   10.8296  145.1559   49.6558 C   0  0  0  0  0  0  0  0  0  0  0  0
   10.4564  144.6775   50.9520 C   0  0  0  0  0  0  0  0  0  0  0  0
    9.0809  144.0121   51.0631 C   0  0  0  0  0  0  0  0  0  0  0  0
    9.6209  143.4482   52.3644 C   0  0  0  0  0  0  0  0  0  0  0  0
   10.9922  143.4963   51.6296 C   0  0  0  0  0  0  0  0  0  0  0  0
   13.5357  143.4874   50.1073 C   0  0  0  0  0  0  0  0  0  0  0  0
   14.3930  142.4189   50.2778 C   0  0  0  0  0  0  0  0  0  0  0  0
   15.3511  142.3295   51.3727 C   0  0  0  0  0  0  0  0  0  0  0  0
   16.6636  141.9262   51.1058 C   0  0  0  0  0  0  0  0  0  0  0  0
   17.6023  141.8318   52.1371 C   0  0  0  0  0  0  0  0  0  0  0  0
   18.9199  141.4262   51.8644 O   0  0  0  0  0  0  0  0  0  0  0  0
   17.2539  142.1317   53.4224 C   0  0  0  0  0  0  0  0  0  0  0  0
   15.9514  142.5337   53.6983 C   0  0  0  0  0  0  0  0  0  0  0  0
   15.0420  142.6224   52.6823 C   0  0  0  0  0  0  0  0  0  0  0  0
   15.5417  142.8673   55.0900 C   0  0  0  0  0  0  0  0  0  0  0  0
   16.5045  142.6087   56.0186 O   0  0  0  0  0  0  0  0  0  0  0  0
   17.8018  142.8583   55.6133 C   0  0  0  0  0  0  0  0  0  0  0  0
   18.1699  142.0494   54.4905 O   0  0  0  0  0  0  0  0  0  0  0  0
   14.2952  138.6068   48.7182 H   0  0  0  0  0  0  0  0  0  0  0  0
   15.3760  139.6450   47.6320 H   0  0  0  0  0  0  0  0  0  0  0  0
   16.0823  138.5410   48.8479 H   0  0  0  0  0  0  0  0  0  0  0  0
   13.4981  140.5462   47.6377 H   0  0  0  0  0  0  0  0  0  0  0  0
   11.9847  142.4374   47.3409 H   0  0  0  0  0  0  0  0  0  0  0  0
   11.3814  146.6510   46.1079 H   0  0  0  0  0  0  0  0  0  0  0  0
    9.6951  147.6305   47.5734 H   0  0  0  0  0  0  0  0  0  0  0  0
    9.3217  146.7212   49.8000 H   0  0  0  0  0  0  0  0  0  0  0  0
   10.4330  145.5269   51.6889 H   0  0  0  0  0  0  0  0  0  0  0  0
    8.8855  143.1948   50.3788 H   0  0  0  0  0  0  0  0  0  0  0  0
    8.2879  144.7556   51.1377 H   0  0  0  0  0  0  0  0  0  0  0  0
    9.5431  144.2228   53.1639 H   0  0  0  0  0  0  0  0  0  0  0  0
    9.3027  142.4480   52.6489 H   0  0  0  0  0  0  0  0  0  0  0  0
   11.8217  143.6237   52.3597 H   0  0  0  0  0  0  0  0  0  0  0  0
   11.0759  142.5257   51.1262 H   0  0  0  0  0  0  0  0  0  0  0  0
   13.5858  144.3013   50.8168 H   0  0  0  0  0  0  0  0  0  0  0  0
   17.0143  141.6750   50.1312 H   0  0  0  0  0  0  0  0  0  0  0  0
   19.1021  140.5853   51.3495 H   0  0  0  0  0  0  0  0  0  0  0  0
   14.0407  142.9380   52.9368 H   0  0  0  0  0  0  0  0  0  0  0  0
   14.6656  142.1958   55.3275 H   0  0  0  0  0  0  0  0  0  0  0  0
   15.1513  143.8873   55.0878 H   0  0  0  0  0  0  0  0  0  0  0  0
   17.9310  143.9331   55.4204 H   0  0  0  0  0  0  0  0  0  0  0  0
   18.4843  142.5577   56.4255 H   0  0  0  0  0  0  0  0  0  0  0  0
  1  2  1  0
  2  3  1  0
  3  4  2  0
  4  5  1  0
  5  6  2  0
  6  7  1  0
  7  8  2  0
  8  9  1  0
  9 10  2  0
 10 11  1  0
 11 12  2  0
 12 13  1  0
 13 14  1  0
 14 15  1  0
 15 16  1  0
  6 17  1  0
 17 18  2  0
 18 19  1  0
 19 20  2  0
 20 21  1  0
 21 22  1  0
 21 23  2  0
 23 24  1  0
 24 25  2  0
 24 26  1  0
 26 27  1  0
 27 28  1  0
 28 29  1  0
 18  3  1  0
 25 19  1  0
 12  7  1  0
 16 13  1  0
 29 23  1  0
  1 30  1  0
  1 31  1  0
  1 32  1  0
  4 33  1  0
  5 34  1  0
  9 35  1  0
 10 36  1  0
 11 37  1  0
 13 38  1  0
 14 39  1  0
 14 40  1  0
 15 41  1  0
 15 42  1  0
 16 43  1  0
 16 44  1  0
 17 45  1  0
 20 46  1  0
 22 47  1  0
 25 48  1  0
 26 49  1  0
 26 50  1  0
 28 51  1  0
 28 52  1  0
M  END
>  <shape_align_shape_tanimoto>  (3) 
0.59122642918167323

>  <shape_align_color_tanimoto>  (3) 
0.14329863055878447

$$$$

     RDKit          3D

 51 54  0  0  0  0  0  0  0  0999 V2000
   15.3847  139.2685   48.6754 C   0  0  0  0  0  0  0  0  0  0  0  0
   15.3520  140.3168   49.6251 O   0  0  0  0  0  0  0  0  0  0  0  0
   14.4481  141.3547   49.4385 C   0  0  0  0  0  0  0  0  0  0  0  0
   13.5930  141.3788   48.3556 C   0  0  0  0  0  0  0  0  0  0  0  0
   12.7181  142.4379   48.2274 C   0  0  0  0  0  0  0  0  0  0  0  0
   12.6524  143.4810   49.1305 C   0  0  0  0  0  0  0  0  0  0  0  0
   11.6880  144.5825   48.8521 C   0  0  0  0  0  0  0  0  0  0  0  0
   11.7219  145.1944   47.6868 N   0  0  0  0  0  0  0  0  0  0  0  0
   10.9535  146.0929   47.3062 C   0  0  0  0  0  0  0  0  0  0  0  0
    9.8191  146.2845   48.8028 S   0  0  0  0  0  0  0  0  0  0  0  0
   10.7024  144.9916   49.7116 C   0  0  0  0  0  0  0  0  0  0  0  0
   10.3051  144.6051   51.0507 C   0  0  0  0  0  0  0  0  0  0  0  0
    9.9621  143.1295   51.0478 C   0  0  0  0  0  0  0  0  0  0  0  0
   11.1974  144.9648   52.1640 C   0  0  0  0  0  0  0  0  0  0  0  0
    8.9492  145.2940   51.3498 C   0  0  0  0  0  0  0  0  0  0  0  0
   13.4948  143.4575   50.1956 C   0  0  0  0  0  0  0  0  0  0  0  0
   14.3907  142.3919   50.3457 C   0  0  0  0  0  0  0  0  0  0  0  0
   15.2985  142.3568   51.4861 C   0  0  0  0  0  0  0  0  0  0  0  0
   16.6412  142.0319   51.3170 C   0  0  0  0  0  0  0  0  0  0  0  0
   17.5193  141.9909   52.3727 C   0  0  0  0  0  0  0  0  0  0  0  0
   18.8603  141.6743   52.2576 O   0  0  0  0  0  0  0  0  0  0  0  0
   19.4954  141.3548   51.0491 C   0  0  0  0  0  0  0  0  0  0  0  0
   17.0576  142.2821   53.6522 C   0  0  0  0  0  0  0  0  0  0  0  0
   15.7456  142.6021   53.8351 C   0  0  0  0  0  0  0  0  0  0  0  0
   14.8669  142.6422   52.7725 C   0  0  0  0  0  0  0  0  0  0  0  0
   15.5938  142.8368   55.2016 O   0  0  0  0  0  0  0  0  0  0  0  0
   16.6860  142.2772   55.9043 C   0  0  0  0  0  0  0  0  0  0  0  0
   17.7013  142.3222   54.9039 O   0  0  0  0  0  0  0  0  0  0  0  0
   15.6162  139.7175   47.6835 H   0  0  0  0  0  0  0  0  0  0  0  0
   14.3209  138.9015   48.6176 H   0  0  0  0  0  0  0  0  0  0  0  0
   16.0836  138.4724   48.9676 H   0  0  0  0  0  0  0  0  0  0  0  0
   13.6305  140.5599   47.6284 H   0  0  0  0  0  0  0  0  0  0  0  0
   12.0435  142.4569   47.3731 H   0  0  0  0  0  0  0  0  0  0  0  0
   10.7900  146.7110   46.4509 H   0  0  0  0  0  0  0  0  0  0  0  0
    9.2445  142.9438   51.8749 H   0  0  0  0  0  0  0  0  0  0  0  0
    9.4556  142.9207   50.0869 H   0  0  0  0  0  0  0  0  0  0  0  0
   10.8429  142.4780   51.1728 H   0  0  0  0  0  0  0  0  0  0  0  0
   10.6053  145.3173   53.0326 H   0  0  0  0  0  0  0  0  0  0  0  0
   11.8948  145.8031   51.9349 H   0  0  0  0  0  0  0  0  0  0  0  0
   11.7983  144.1162   52.5601 H   0  0  0  0  0  0  0  0  0  0  0  0
    8.3737  145.3201   50.4099 H   0  0  0  0  0  0  0  0  0  0  0  0
    8.4686  144.7247   52.1632 H   0  0  0  0  0  0  0  0  0  0  0  0
    9.1623  146.3454   51.6466 H   0  0  0  0  0  0  0  0  0  0  0  0
   13.5413  144.2146   50.9311 H   0  0  0  0  0  0  0  0  0  0  0  0
   17.0107  141.8045   50.3316 H   0  0  0  0  0  0  0  0  0  0  0  0
   19.4920  140.2628   50.8077 H   0  0  0  0  0  0  0  0  0  0  0  0
   20.5802  141.6073   51.1960 H   0  0  0  0  0  0  0  0  0  0  0  0
   19.0425  141.9657   50.2477 H   0  0  0  0  0  0  0  0  0  0  0  0
   13.8313  142.8995   52.9489 H   0  0  0  0  0  0  0  0  0  0  0  0
   16.9284  142.9096   56.7832 H   0  0  0  0  0  0  0  0  0  0  0  0
   16.4760  141.2303   56.2381 H   0  0  0  0  0  0  0  0  0  0  0  0
  1  2  1  0
  2  3  1  0
  3  4  2  0
  4  5  1  0
  5  6  2  0
  6  7  1  0
  7  8  1  0
  8  9  2  0
  9 10  1  0
 10 11  1  0
 11 12  1  0
 12 13  1  0
 12 14  1  0
 12 15  1  0
  6 16  1  0
 16 17  2  0
 17 18  1  0
 18 19  2  0
 19 20  1  0
 20 21  1  0
 21 22  1  0
 20 23  2  0
 23 24  1  0
 24 25  2  0
 24 26  1  0
 26 27  1  0
 27 28  1  0
 17  3  1  0
 25 18  1  0
 11  7  2  0
 28 23  1  0
  1 29  1  0
  1 30  1  0
  1 31  1  0
  4 32  1  0
  5 33  1  0
  9 34  1  0
 13 35  1  0
 13 36  1  0
 13 37  1  0
 14 38  1  0
 14 39  1  0
 14 40  1  0
 15 41  1  0
 15 42  1  0
 15 43  1  0
 16 44  1  0
 19 45  1  0
 22 46  1  0
 22 47  1  0
 22 48  1  0
 25 49  1  0
 27 50  1  0
 27 51  1  0
M  END
>  <shape_align_shape_tanimoto>  (4) 
0.70912728700457206

>  <shape_align_color_tanimoto>  (4) 
0.26542319043345636

$$$$

     RDKit          3D

 46 49  0  0  0  0  0  0  0  0999 V2000
   14.2088  138.5807   48.4332 C   0  0  0  0  0  0  0  0  0  0  0  0
   15.4806  139.3580   48.5894 C   0  0  0  0  0  0  0  0  0  0  0  0
   15.3886  140.3959   49.5219 O   0  0  0  0  0  0  0  0  0  0  0  0
   14.4987  141.4332   49.3776 C   0  0  0  0  0  0  0  0  0  0  0  0
   13.6227  141.5740   48.3322 C   0  0  0  0  0  0  0  0  0  0  0  0
   12.7746  142.6667   48.3010 C   0  0  0  0  0  0  0  0  0  0  0  0
   12.7632  143.6326   49.2761 C   0  0  0  0  0  0  0  0  0  0  0  0
   11.8880  144.7855   49.2748 C   0  0  0  0  0  0  0  0  0  0  0  0
   12.3035  146.0502   49.5445 N   0  0  0  0  0  0  0  0  0  0  0  0
   11.2280  146.8784   49.4634 C   0  0  0  0  0  0  0  0  0  0  0  0
   10.1657  146.1515   49.1509 O   0  0  0  0  0  0  0  0  0  0  0  0
   10.5402  144.8849   49.0320 C   0  0  0  0  0  0  0  0  0  0  0  0
    9.4484  143.5416   48.6209 S   0  0  0  0  0  0  0  0  0  0  0  0
    9.3610  143.3046   46.8374 C   0  0  0  0  0  0  0  0  0  0  0  0
   13.6391  143.4898   50.3190 C   0  0  0  0  0  0  0  0  0  0  0  0
   14.4948  142.4007   50.3642 C   0  0  0  0  0  0  0  0  0  0  0  0
   15.3918  142.3394   51.5191 C   0  0  0  0  0  0  0  0  0  0  0  0
   16.7178  142.0333   51.3706 C   0  0  0  0  0  0  0  0  0  0  0  0
   17.5524  141.9782   52.4635 C   0  0  0  0  0  0  0  0  0  0  0  0
   18.9008  141.6655   52.3000 O   0  0  0  0  0  0  0  0  0  0  0  0
   19.4584  141.3970   51.0329 C   0  0  0  0  0  0  0  0  0  0  0  0
   17.0562  142.2313   53.7132 C   0  0  0  0  0  0  0  0  0  0  0  0
   17.5827  142.2551   54.9070 O   0  0  0  0  0  0  0  0  0  0  0  0
   16.6881  142.5547   55.8090 C   0  0  0  0  0  0  0  0  0  0  0  0
   15.4722  142.7463   55.1776 C   0  0  0  0  0  0  0  0  0  0  0  0
   15.7152  142.5381   53.8391 C   0  0  0  0  0  0  0  0  0  0  0  0
   14.8630  142.5980   52.7553 C   0  0  0  0  0  0  0  0  0  0  0  0
   13.8667  138.4732   47.3865 H   0  0  0  0  0  0  0  0  0  0  0  0
   14.4004  137.5232   48.7634 H   0  0  0  0  0  0  0  0  0  0  0  0
   13.3543  138.9794   49.0187 H   0  0  0  0  0  0  0  0  0  0  0  0
   15.7147  139.7818   47.5790 H   0  0  0  0  0  0  0  0  0  0  0  0
   16.3268  138.6802   48.7982 H   0  0  0  0  0  0  0  0  0  0  0  0
   13.6061  140.8361   47.5476 H   0  0  0  0  0  0  0  0  0  0  0  0
   12.1063  142.7458   47.4705 H   0  0  0  0  0  0  0  0  0  0  0  0
   11.2038  147.9478   49.6196 H   0  0  0  0  0  0  0  0  0  0  0  0
    8.4453  143.7562   46.4079 H   0  0  0  0  0  0  0  0  0  0  0  0
   10.2467  143.8097   46.3951 H   0  0  0  0  0  0  0  0  0  0  0  0
    9.4638  142.2232   46.5549 H   0  0  0  0  0  0  0  0  0  0  0  0
   13.6556  144.2341   51.1045 H   0  0  0  0  0  0  0  0  0  0  0  0
   17.1063  141.8345   50.3863 H   0  0  0  0  0  0  0  0  0  0  0  0
   20.4854  141.0090   51.2268 H   0  0  0  0  0  0  0  0  0  0  0  0
   19.5562  142.3047   50.4228 H   0  0  0  0  0  0  0  0  0  0  0  0
   18.8444  140.6456   50.5046 H   0  0  0  0  0  0  0  0  0  0  0  0
   16.8408  142.6458   56.8809 H   0  0  0  0  0  0  0  0  0  0  0  0
   14.5151  143.0058   55.6167 H   0  0  0  0  0  0  0  0  0  0  0  0
   13.8096  142.8420   52.8799 H   0  0  0  0  0  0  0  0  0  0  0  0
  1  2  1  0
  2  3  1  0
  3  4  1  0
  4  5  2  0
  5  6  1  0
  6  7  2  0
  7  8  1  0
  8  9  1  0
  9 10  2  0
 10 11  1  0
 11 12  1  0
 12 13  1  0
 13 14  1  0
  7 15  1  0
 15 16  2  0
 16 17  1  0
 17 18  2  0
 18 19  1  0
 19 20  1  0
 20 21  1  0
 19 22  2  0
 22 23  1  0
 23 24  1  0
 24 25  2  0
 25 26  1  0
 26 27  2  0
 16  4  1  0
 27 17  1  0
 12  8  2  0
 26 22  1  0
  1 28  1  0
  1 29  1  0
  1 30  1  0
  2 31  1  0
  2 32  1  0
  5 33  1  0
  6 34  1  0
 10 35  1  0
 14 36  1  0
 14 37  1  0
 14 38  1  0
 15 39  1  0
 18 40  1  0
 21 41  1  0
 21 42  1  0
 21 43  1  0
 24 44  1  0
 25 45  1  0
 27 46  1  0
M  END
>  <shape_align_shape_tanimoto>  (5) 
0.61054041695922878

>  <shape_align_color_tanimoto>  (5) 
0.23143651420660588

$$$$
